8

C       4.000000000000000      4.000000000000000      4.762209000000000
C       4.000000000000000      4.000000000000000      3.237791000000000
H       4.000000000000000      5.018957000000000      5.157229000000000
H       3.117557000000000      3.490521000000000      5.157229000000000
H       4.882443000000000      3.490521000000000      5.157229000000000
H       4.000000000000000      2.981043000000000      2.842771000000000
H       3.117557000000000      4.509479000000000      2.842771000000000
H       4.882443000000000      4.509479000000000      2.842771000000000
